####################################################################### 
# 
# This file contains crystal structure data downloaded from the 
# Cambridge Structural Database (CSD) hosted by the Cambridge 
# Crystallographic Data Centre (CCDC).
# 
# Full information about CCDC data access policies and citation 
# guidelines are available at http://www.ccdc.cam.ac.uk/access/V1 
# 
# Audit and citation data items may have been added by the CCDC. 
# Please retain this information to preserve the provenance of 
# this file and to allow appropriate attribution of the data. 
# 
#######################################################################
@<TRIPOS>MOLECULE
MARZUE
   170   126     2     0     0
SMALL
NO_CHARGES
****
Generated from the CSD

@<TRIPOS>ATOM
     1 Tb1      4.3979   2.1053  10.8631   Tb        1 RES1   0.0000
     2 I2       6.1302   3.3016  13.0170   I         1 RES1   0.0000
     3 I1       6.2609  -0.3234  10.9683   I         1 RES1   0.0000
     4 C11A     2.9838   3.1678   7.1966   C.3       1 RES1   0.0000
     5 H00A     2.9130   2.2390   6.9669   H         1 RES1   0.0000
     6 H00B     3.8709   3.3519   7.5159   H         1 RES1   0.0000
     7 H00C     2.8052   3.7049   6.4217   H         1 RES1   0.0000
     8 C8A      2.9929  -0.6385   8.6766   C.3       1 RES1   0.0000
     9 H00D     3.0841  -1.1241   9.4999   H         1 RES1   0.0000
    10 H00E     3.8117  -0.1731   8.4880   H         1 RES1   0.0000
    11 H00F     2.8015  -1.2509   7.9631   H         1 RES1   0.0000
    12 C7A      0.5317  -0.3774   8.8200   C.3       1 RES1   0.0000
    13 H00G     0.4252  -0.8831   8.0118   H         1 RES1   0.0000
    14 H00H    -0.1709   0.2745   8.8849   H         1 RES1   0.0000
    15 H00I     0.4924  -0.9665   9.5758   H         1 RES1   0.0000
    16 C10A     0.5053   3.3465   7.8094   C.3       1 RES1   0.0000
    17 H00J     0.3806   3.8694   7.0133   H         1 RES1   0.0000
    18 H00K    -0.1014   3.6396   8.4872   H         1 RES1   0.0000
    19 H00L     0.3382   2.4191   7.6070   H         1 RES1   0.0000
    20 C2A      2.1214   2.7855   9.6682   C.1       1 RES1   0.0000
    21 C3A      2.0940   3.4389  10.9376   C.1       1 RES1   0.0000
    22 C4A      1.9938   2.4439  11.9627   C.1       1 RES1   0.0000
    23 C19A     0.2441  -0.3068  12.4044   C.3       1 RES1   0.0000
    24 H00M     0.0448  -1.2185  12.6292   H         1 RES1   0.0000
    25 H00N    -0.3320  -0.0193  11.6924   H         1 RES1   0.0000
    26 H00O     0.1063   0.2505  13.1731   H         1 RES1   0.0000
    27 C14A     3.3500   5.6842  10.7284   C.3       1 RES1   0.0000
    28 H00P     4.1134   5.3657  11.2149   H         1 RES1   0.0000
    29 H00Q     3.2426   6.6257  10.8806   H         1 RES1   0.0000
    30 H00R     3.4786   5.5243   9.7903   H         1 RES1   0.0000
    31 C20A     2.6748  -0.6077  13.0362   C.3       1 RES1   0.0000
    32 H00S     2.6342   0.0279  13.7542   H         1 RES1   0.0000
    33 H00T     3.5677  -0.6347  12.6832   H         1 RES1   0.0000
    34 H00U     2.4351  -1.4775  13.3648   H         1 RES1   0.0000
    35 C5A      1.9580   1.1658  11.3105   C.1       1 RES1   0.0000
    36 C17A     2.5761   3.3465  14.3465   C.3       1 RES1   0.0000
    37 H00V     3.4056   2.8642  14.3508   H         1 RES1   0.0000
    38 H00W     2.2139   3.3724  15.2336   H         1 RES1   0.0000
    39 H00X     2.7249   4.2399  14.0319   H         1 RES1   0.0000
    40 C1A      2.0299   1.3744   9.8963   C.1       1 RES1   0.0000
    41 C16A     0.1801   3.2770  13.4983   C.3       1 RES1   0.0000
    42 H00Y     0.2224   4.1822  13.1847   H         1 RES1   0.0000
    43 H26     -0.1305   3.2554  14.3989   H         1 RES1   0.0000
    44 H27     -0.4195   2.7739  12.9353   H         1 RES1   0.0000
    45 C6A      1.8892   0.3376   8.7995   C.3       1 RES1   0.0000
    46 H00Z     1.8995   0.8461   7.9619   H         1 RES1   0.0000
    47 C13A     0.8367   5.6703  10.6963   C.3       1 RES1   0.0000
    48 H00      0.9100   5.7959   9.7473   H         1 RES1   0.0000
    49 H30      0.7651   6.5201  11.1300   H         1 RES1   0.0000
    50 H31      0.0569   5.1424  10.8887   H         1 RES1   0.0000
    51 C9A      1.9575   3.5054   8.3052   C.3       1 RES1   0.0000
    52 H0AA     2.0704   4.4605   8.4931   H         1 RES1   0.0000
    53 C15A     1.5918   2.6445  13.4208   C.3       1 RES1   0.0000
    54 H1AA     1.4900   1.7410  13.7876   H         1 RES1   0.0000
    55 C18A     1.7172  -0.1996  11.9481   C.3       1 RES1   0.0000
    56 H2AA     1.8268  -0.8576  11.2304   H         1 RES1   0.0000
    57 C12A     2.0834   4.9364  11.2096   C.3       1 RES1   0.0000
    58 H3AA     2.0690   5.0326  12.1842   H         1 RES1   0.0000
    59 Tb2      8.1240   2.1053  11.0734   Tb        1 RES1   0.0000
    60 I3       6.3917   3.3016   8.9195   I         1 RES1   0.0000
    61 C21      9.5381   3.1678  14.7399   C.3       1 RES1   0.0000
    62 H36      9.6089   2.2390  14.9696   H         1 RES1   0.0000
    63 H37      8.6510   3.3519  14.4207   H         1 RES1   0.0000
    64 H38      9.7167   3.7049  15.5149   H         1 RES1   0.0000
    65 C22      9.5290  -0.6385  13.2599   C.3       1 RES1   0.0000
    66 H39      9.4378  -1.1241  12.4367   H         1 RES1   0.0000
    67 H40      8.7102  -0.1731  13.4485   H         1 RES1   0.0000
    68 H41      9.7204  -1.2509  13.9734   H         1 RES1   0.0000
    69 C23     11.9902  -0.3774  13.1166   C.3       1 RES1   0.0000
    70 H42     12.0967  -0.8831  13.9247   H         1 RES1   0.0000
    71 H43     12.6928   0.2745  13.0517   H         1 RES1   0.0000
    72 H44     12.0295  -0.9665  12.3607   H         1 RES1   0.0000
    73 C24     12.0166   3.3465  14.1271   C.3       1 RES1   0.0000
    74 H45     12.1413   3.8694  14.9233   H         1 RES1   0.0000
    75 H46     12.6233   3.6396  13.4494   H         1 RES1   0.0000
    76 H47     12.1836   2.4191  14.3296   H         1 RES1   0.0000
    77 C25     10.4004   2.7855  12.2684   C.1       1 RES1   0.0000
    78 C26     10.4279   3.4389  10.9990   C.1       1 RES1   0.0000
    79 C27     10.5281   2.4439   9.9738   C.1       1 RES1   0.0000
    80 C28     12.2778  -0.3068   9.5322   C.3       1 RES1   0.0000
    81 H48     12.4771  -1.2185   9.3074   H         1 RES1   0.0000
    82 H49     12.8539  -0.0193  10.2442   H         1 RES1   0.0000
    83 H50     12.4156   0.2505   8.7634   H         1 RES1   0.0000
    84 C29      9.1719   5.6842  11.2081   C.3       1 RES1   0.0000
    85 H51      8.4085   5.3657  10.7217   H         1 RES1   0.0000
    86 H52      9.2793   6.6257  11.0559   H         1 RES1   0.0000
    87 H53      9.0433   5.5243  12.1463   H         1 RES1   0.0000
    88 C30      9.8471  -0.6077   8.9004   C.3       1 RES1   0.0000
    89 H54      9.8877   0.0279   8.1823   H         1 RES1   0.0000
    90 H55      8.9542  -0.6347   9.2534   H         1 RES1   0.0000
    91 H56     10.0868  -1.4775   8.5718   H         1 RES1   0.0000
    92 C31     10.5639   1.1658  10.6261   C.1       1 RES1   0.0000
    93 C32      9.9457   3.3465   7.5900   C.3       1 RES1   0.0000
    94 H57      9.1163   2.8642   7.5857   H         1 RES1   0.0000
    95 H58     10.3080   3.3724   6.7030   H         1 RES1   0.0000
    96 H59      9.7970   4.2399   7.9047   H         1 RES1   0.0000
    97 C33     10.4919   1.3744  12.0402   C.1       1 RES1   0.0000
    98 C34     12.3418   3.2770   8.4383   C.3       1 RES1   0.0000
    99 H60     12.2995   4.1822   8.7518   H         1 RES1   0.0000
   100 H61     12.6524   3.2554   7.5376   H         1 RES1   0.0000
   101 H62     12.9414   2.7739   9.0013   H         1 RES1   0.0000
   102 C35     10.6327   0.3376  13.1371   C.3       1 RES1   0.0000
   103 H63     10.6223   0.8461  13.9746   H         1 RES1   0.0000
   104 C36     11.6852   5.6703  11.2403   C.3       1 RES1   0.0000
   105 H64     11.6119   5.7959  12.1893   H         1 RES1   0.0000
   106 H65     11.7568   6.5201  10.8065   H         1 RES1   0.0000
   107 H66     12.4650   5.1424  11.0478   H         1 RES1   0.0000
   108 C37     10.5644   3.5054  13.6314   C.3       1 RES1   0.0000
   109 H67     10.4515   4.4605  13.4434   H         1 RES1   0.0000
   110 C38     10.9300   2.6445   8.5158   C.3       1 RES1   0.0000
   111 H68     11.0319   1.7410   8.1490   H         1 RES1   0.0000
   112 C39     10.8047  -0.1996   9.9884   C.3       1 RES1   0.0000
   113 H69     10.6951  -0.8576  10.7062   H         1 RES1   0.0000
   114 C40     10.4385   4.9364  10.7270   C.3       1 RES1   0.0000
   115 H70     10.4529   5.0326   9.7524   H         1 RES1   0.0000
   116 C18B?    1.7203   0.3615  12.7656   C.3       2 RES2   0.0000
   117 H18B?    1.6204   0.8758  13.5943   H         2 RES2   0.0000
   118 C6B?     1.8710  -0.2363   9.6287   C.3       2 RES2   0.0000
   119 H6B?     1.8964  -0.8622  10.3823   H         2 RES2   0.0000
   120 C15B?    1.6804   3.5293  13.1956   C.3       2 RES2   0.0000
   121 H15B?    1.7692   4.4902  13.0243   H         2 RES2   0.0000
   122 C9B?     1.8865   2.5720   8.0668   C.3       2 RES2   0.0000
   123 H9B?     1.7545   1.6753   7.6981   H         2 RES2   0.0000
   124 C12B?    2.1658   4.9225  10.2619   C.3       2 RES2   0.0000
   125 H12B?    2.2972   5.0554   9.3001   H         2 RES2   0.0000
   126 C1B?     2.0330   1.1420  10.3146   C.3       2 RES2   0.0000
   127 C3B?     2.1512   3.3763  10.4944   C.3       2 RES2   0.0000
   128 C5B?     1.9922   1.4101  11.6746   C.3       2 RES2   0.0000
   129 C2B?     2.1215   2.3535   9.5731   C.3       2 RES2   0.0000
   130 C4B?     2.0301   2.8500  11.7872   C.3       2 RES2   0.0000
   131 C20B?    2.9174  -0.5958  13.0157   C.3       2 RES2   0.0000
   132 H20A?    3.0906  -1.1107  12.2294   H         2 RES2   0.0000
   133 H20B?    2.7155  -1.1793  13.7501   H         2 RES2   0.0000
   134 H20C?    3.7008  -0.0741  13.2348   H         2 RES2   0.0000
   135 C19B?    0.3983  -0.4767  12.6501   C.3       2 RES2   0.0000
   136 H19A?   -0.3391   0.1072  12.5077   H         2 RES2   0.0000
   137 H19B?    0.2737  -0.9817  13.4544   H         2 RES2   0.0000
   138 H19C?    0.4809  -1.0847  11.9039   H         2 RES2   0.0000
   139 C17B?    2.6298   3.2770  14.3319   C.3       2 RES2   0.0000
   140 H17A?    2.6198   2.3434  14.5533   H         2 RES2   0.0000
   141 H17B?    2.3673   3.7946  15.0900   H         2 RES2   0.0000
   142 H17C?    3.5200   3.5288  14.0613   H         2 RES2   0.0000
   143 C16B?    0.2718   3.3664  13.5422   C.3       2 RES2   0.0000
   144 H16A?   -0.2707   3.5170  12.7669   H         2 RES2   0.0000
   145 H16B?    0.0350   3.9915  14.2295   H         2 RES2   0.0000
   146 H16C?    0.1245   2.4696  13.8642   H         2 RES2   0.0000
   147 C8B?     3.0920  -0.7051   8.7307   C.3       2 RES2   0.0000
   148 H8BA?    3.1642  -0.1335   7.9616   H         2 RES2   0.0000
   149 H8BB?    2.9486  -1.6105   8.4407   H         2 RES2   0.0000
   150 H8BC?    3.9040  -0.6588   9.2400   H         2 RES2   0.0000
   151 C7B?     0.4762  -0.4568   9.0379   C.3       2 RES2   0.0000
   152 H7BA?   -0.1899  -0.2697   9.7140   H         2 RES2   0.0000
   153 H7BB?    0.3845  -1.3638   8.7493   H         2 RES2   0.0000
   154 H7BC?    0.3411   0.1363   8.2960   H         2 RES2   0.0000
   155 C11B?    2.9096   3.1281   7.2976   C.3       2 RES2   0.0000
   156 H11A?    3.0792   4.0252   7.6057   H         2 RES2   0.0000
   157 H11B?    2.6391   3.1512   6.3809   H         2 RES2   0.0000
   158 H11C?    3.7004   2.6013   7.3952   H         2 RES2   0.0000
   159 C10B?    0.5753   3.2770   7.8533   C.3       2 RES2   0.0000
   160 H10A?   -0.1245   2.7769   8.2747   H         2 RES2   0.0000
   161 H10B?    0.4038   3.3483   6.9138   H         2 RES2   0.0000
   162 H10C?    0.6224   4.1548   8.2403   H         2 RES2   0.0000
   163 C13B?    0.7253   5.4617  10.5880   C.3       2 RES2   0.0000
   164 H13A?    0.0759   4.9832  10.0786   H         2 RES2   0.0000
   165 H13B?    0.6792   6.3997  10.3741   H         2 RES2   0.0000
   166 H13C?    0.5472   5.3475  11.5287   H         2 RES2   0.0000
   167 C14B?    3.3303   5.6802  10.9683   C.3       2 RES2   0.0000
   168 H14A?    4.1692   5.3037  10.7012   H         2 RES2   0.0000
   169 H14B?    3.2325   5.5930  11.9245   H         2 RES2   0.0000
   170 H14C?    3.3006   6.6084  10.7321   H         2 RES2   0.0000
@<TRIPOS>BOND
     1     1     2    1
     2     1     3    1
     3     1    20   un
     4     1    21   un
     5     1    22   un
     6     1    35   un
     7     1    40   un
     8     1    60    1
     9     2    59    1
    10     3    59    1
    11     4     5    1
    12     4     6    1
    13     4     7    1
    14     4    51    1
    15     8     9    1
    16     8    10    1
    17     8    11    1
    18     8    45    1
    19    12    13    1
    20    12    14    1
    21    12    15    1
    22    12    45    1
    23    16    17    1
    24    16    18    1
    25    16    19    1
    26    16    51    1
    27    20    21    2
    28    20    40    2
    29    20    51    1
    30    21    22    2
    31    21    57    1
    32    22    35    2
    33    22    53    1
    34    23    24    1
    35    23    25    1
    36    23    26    1
    37    23    55    1
    38    27    28    1
    39    27    29    1
    40    27    30    1
    41    27    57    1
    42    31    32    1
    43    31    33    1
    44    31    34    1
    45    31    55    1
    46    35    40    2
    47    35    55    1
    48    36    37    1
    49    36    38    1
    50    36    39    1
    51    36    53    1
    52    40    45    1
    53    41    42    1
    54    41    43    1
    55    41    44    1
    56    41    53    1
    57    45    46    1
    58    47    48    1
    59    47    49    1
    60    47    50    1
    61    47    57    1
    62    51    52    1
    63    53    54    1
    64    55    56    1
    65    57    58    1
    66    59    60    1
    67    59    77   un
    68    59    78   un
    69    59    79   un
    70    59    92   un
    71    59    97   un
    72    61    62    1
    73    61    63    1
    74    61    64    1
    75    61   108    1
    76    65    66    1
    77    65    67    1
    78    65    68    1
    79    65   102    1
    80    69    70    1
    81    69    71    1
    82    69    72    1
    83    69   102    1
    84    73    74    1
    85    73    75    1
    86    73    76    1
    87    73   108    1
    88    77    78    2
    89    77    97    2
    90    77   108    1
    91    78    79    2
    92    78   114    1
    93    79    92    2
    94    79   110    1
    95    80    81    1
    96    80    82    1
    97    80    83    1
    98    80   112    1
    99    84    85    1
   100    84    86    1
   101    84    87    1
   102    84   114    1
   103    88    89    1
   104    88    90    1
   105    88    91    1
   106    88   112    1
   107    92    97    2
   108    92   112    1
   109    93    94    1
   110    93    95    1
   111    93    96    1
   112    93   110    1
   113    97   102    1
   114    98    99    1
   115    98   100    1
   116    98   101    1
   117    98   110    1
   118   102   103    1
   119   104   105    1
   120   104   106    1
   121   104   107    1
   122   104   114    1
   123   108   109    1
   124   110   111    1
   125   112   113    1
   126   114   115    1
@<TRIPOS>SUBSTRUCTURE
     1 RES1        1 GROUP             0 ****  ****    0  
     2 RES2      116 GROUP             0 ****  ****    0  
